data_global
_chemical_name 'Graphane boat'
_cell_length_a 4.272
_cell_length_b 2.505
_cell_length_c 4.976
_cell_angle_alpha 90
_cell_angle_beta 90
_cell_angle_gamma 90
_symmetry_space_group_name_H-M 'P m m n'
loop_
_atom_site_label
_atom_site_symmetry_multiplicity
_atom_site_Wyckoff_symbol
_atom_site_fract_x
_atom_site_fract_y
_atom_site_fract_z
C 4 f  0.8178 0 0.5636
H 4 f  0.7439 0 0.7717